/*--------------------------------*- C++ -*----------------------------------*\
| =========                 |                                                 |
| \\      /  F ield         | OpenFOAM: The Open Source CFD Toolbox           |
|  \\    /   O peration     | Version:  dev                                   |
|   \\  /    A nd           | Web:      www.OpenFOAM.org                      |
|    \\/     M anipulation  |                                                 |
\*---------------------------------------------------------------------------*/
FoamFile
{
    version     2.0;
    format      ascii;
    class       dictionary;
    object      blockMeshDict;
}
// * * * * * * * * * * * * * * * * * * * * * * * * * * * * * * * * * * * * * //

convertToMeters 1;
vertices
(
  (0. 0. 0.)
  (1. 0. 0.)
  (1. 1. 0.)
  (0. 1. 0.)
  (0. 0. 1.)
  (1. 0. 1.)
  (1. 1. 1.)
  (0. 1. 1.)
);


blocks
(
 hex (5 4 6 6 0 0 0 0) (1 1 1) simpleGrading (1 1 1)
 hex (2 7 3 3 0 0 0 0) (1 1 1) simpleGrading (1 1 1)
 hex (2 1 6 6 0 0 0 0) (1 1 1) simpleGrading (1 1 1)
 hex (5 6 1 1 0 0 0 0) (1 1 1) simpleGrading (1 1 1)
 hex (2 6 7 7 0 0 0 0) (1 1 1) simpleGrading (1 1 1)
 hex (6 4 7 7 0 0 0 0) (1 1 1) simpleGrading (1 1 1)
);

boundary
(
inlet
{
  type patch;
  faces
  (
    (7 3 0 0)
    (4 7 0 0)
  );
}


outlet
{
  type patch;
  faces
  (
    (1 2 6 6)
    (6 5 1 1)
  );
}


wall
{
  type wall;
  faces
  (
    (2 1 0 0)
    (5 4 0 0)
    (3 2 0 0)
    (1 5 0 0)
    (4 5 6 6)
    (6 2 7 7)
    (4 6 7 7)
    (7 2 3 3)
  );
}

);


// ************************************************************************* //
