/*--------------------------------*- C++ -*----------------------------------*\
| =========                 |                                                 |
| \\      /  F ield         | OpenFOAM: The Open Source CFD Toolbox           |
|  \\    /   O peration     | Version:  dev                                   |
|   \\  /    A nd           | Web:      www.OpenFOAM.org                      |
|    \\/     M anipulation  |                                                 |
\*---------------------------------------------------------------------------*/
FoamFile

{
    version     2.0;
    format       ascii;
    class       dictionary;
    object      blockMeshDict;
}

// * * * * * * * * * * * * * * * * * * * * * * * * * * * * * * * * * * * * * //


  convertToMeters 1;  

vertices
(
  (0.4444444444444444 1. 0.8888888888888888)
  (0.33333333333333326 1. 0.8888888888888888)
  (0.4444444444444444 1. 1.)
  (0.33333333333333326 1. 1.)
  (0.4444444444444444 0.8333333333333333 1.)
  (0.33333333333333326 0.8333333333333333 1.)
  (0.4444444444444444 1. 0.6666666666666665)
  (0.33333333333333326 1. 0.6666666666666665)
  (0.4444444444444444 1. 0.4444444444444444)
  (0.33333333333333326 1. 0.4444444444444444)
  (0.4444444444444444 1. 0.22222222222222232)
  (0.33333333333333326 1. 0.22222222222222232)
  (0.4444444444444444 1. 0.)
  (0.33333333333333326 1. 0.)
  (0.4444444444444444 0.8333333333333333 0.)
  (0.33333333333333326 0.8333333333333333 0.)
  (0.4444444444444444 0.6666666666666665 1.)
  (0.33333333333333326 0.6666666666666665 1.)
  (0.4444444444444444 0.6666666666666665 0.)
  (0.33333333333333326 0.6666666666666665 0.)
  (0.4444444444444444 0.5 1.1111111111111112)
  (0.33333333333333326 0.5 1.1111111111111112)
  (0.4444444444444444 0.5 0.)
  (0.33333333333333326 0.5 0.)
  (0.4444444444444444 0.5 2.)
  (0.33333333333333326 0.5 2.)
  (0.4444444444444444 0.33333333333333326 2.)
  (0.33333333333333326 0.33333333333333326 2.)
  (0.4444444444444444 0.5 1.7777777777777777)
  (0.33333333333333326 0.5 1.7777777777777777)
  (0.4444444444444444 0.5 1.5555555555555554)
  (0.33333333333333326 0.5 1.5555555555555554)
  (0.4444444444444444 0.5 1.333333333333333)
  (0.33333333333333326 0.5 1.333333333333333)
  (0.4444444444444444 0.33333333333333326 0.)
  (0.33333333333333326 0.33333333333333326 0.)
  (0.4444444444444444 0.16666666666666652 2.)
  (0.33333333333333326 0.16666666666666652 2.)
  (0.4444444444444444 0.16666666666666652 0.)
  (0.33333333333333326 0.16666666666666652 0.)
  (0.4444444444444444 0. 2.)
  (0.33333333333333326 0. 2.)
  (0.4444444444444444 0. 0.8888888888888888)
  (0.33333333333333326 0. 0.8888888888888888)
  (0.4444444444444444 0. 0.6666666666666665)
  (0.33333333333333326 0. 0.6666666666666665)
  (0.4444444444444444 0. 0.4444444444444444)
  (0.33333333333333326 0. 0.4444444444444444)
  (0.4444444444444444 0. 0.22222222222222232)
  (0.33333333333333326 0. 0.22222222222222232)
  (0.4444444444444444 0. 0.)
  (0.33333333333333326 0. 0.)
  (0.4444444444444444 -0.16666666666666674 2.)
  (0.33333333333333326 -0.16666666666666674 2.)
  (0.4444444444444444 -0.16666666666666674 1.)
  (0.33333333333333326 -0.16666666666666674 1.)
  (0.4444444444444444 -0.33333333333333337 2.)
  (0.33333333333333326 -0.33333333333333337 2.)
  (0.4444444444444444 -0.33333333333333337 1.)
  (0.33333333333333326 -0.33333333333333337 1.)
  (0.4444444444444444 -0.5 2.)
  (0.33333333333333326 -0.5 2.)
  (0.4444444444444444 -0.5 1.7777777777777777)
  (0.33333333333333326 -0.5 1.7777777777777777)
  (0.4444444444444444 -0.5 1.5555555555555554)
  (0.33333333333333326 -0.5 1.5555555555555554)
  (0.4444444444444444 -0.5 1.333333333333333)
  (0.33333333333333326 -0.5 1.333333333333333)
  (0.4444444444444444 -0.5 1.1111111111111112)
  (0.33333333333333326 -0.5 1.1111111111111112)
  (0.4444444444444444 -0.5 1.)
  (0.33333333333333326 -0.5 1.)
  (0.22222222222222232 1. 0.8888888888888888)
  (0.22222222222222232 1. 1.)
  (0.22222222222222232 0.8333333333333333 1.)
  (0.22222222222222232 1. 0.6666666666666665)
  (0.22222222222222232 1. 0.4444444444444444)
  (0.22222222222222232 1. 0.22222222222222232)
  (0.22222222222222232 1. 0.)
  (0.22222222222222232 0.8333333333333333 0.)
  (0.22222222222222232 0.6666666666666665 1.)
  (0.22222222222222232 0.6666666666666665 0.)
  (0.22222222222222232 0.5 1.1111111111111112)
  (0.22222222222222232 0.5 0.)
  (0.22222222222222232 0.5 2.)
  (0.22222222222222232 0.33333333333333326 2.)
  (0.22222222222222232 0.5 1.7777777777777777)
  (0.22222222222222232 0.5 1.5555555555555554)
  (0.22222222222222232 0.5 1.333333333333333)
  (0.22222222222222232 0.33333333333333326 0.)
  (0.22222222222222232 0.16666666666666652 2.)
  (0.22222222222222232 0.16666666666666652 0.)
  (0.22222222222222232 0. 2.)
  (0.22222222222222232 0. 0.8888888888888888)
  (0.22222222222222232 0. 0.6666666666666665)
  (0.22222222222222232 0. 0.4444444444444444)
  (0.22222222222222232 0. 0.22222222222222232)
  (0.22222222222222232 0. 0.)
  (0.22222222222222232 -0.16666666666666674 2.)
  (0.22222222222222232 -0.16666666666666674 1.)
  (0.22222222222222232 -0.33333333333333337 2.)
  (0.22222222222222232 -0.33333333333333337 1.)
  (0.22222222222222232 -0.5 2.)
  (0.22222222222222232 -0.5 1.7777777777777777)
  (0.22222222222222232 -0.5 1.5555555555555554)
  (0.22222222222222232 -0.5 1.333333333333333)
  (0.22222222222222232 -0.5 1.1111111111111112)
  (0.22222222222222232 -0.5 1.)
  (0.11111111111111116 1. 0.8888888888888888)
  (0.11111111111111116 1. 1.)
  (0.11111111111111116 0.8333333333333333 1.)
  (0.11111111111111116 1. 0.6666666666666665)
  (0.11111111111111116 1. 0.4444444444444444)
  (0.11111111111111116 1. 0.22222222222222232)
  (0.11111111111111116 1. 0.)
  (0.11111111111111116 0.8333333333333333 0.)
  (0.11111111111111116 0.6666666666666665 1.)
  (0.11111111111111116 0.6666666666666665 0.)
  (0.11111111111111116 0.5 1.1111111111111112)
  (0.11111111111111116 0.5 0.)
  (0.11111111111111116 0.5 2.)
  (0.11111111111111116 0.33333333333333326 2.)
  (0.11111111111111116 0.5 1.7777777777777777)
  (0.11111111111111116 0.5 1.5555555555555554)
  (0.11111111111111116 0.5 1.333333333333333)
  (0.11111111111111116 0.33333333333333326 0.)
  (0.11111111111111116 0.16666666666666652 2.)
  (0.11111111111111116 0.16666666666666652 0.)
  (0.11111111111111116 0. 2.)
  (0.11111111111111116 0. 0.8888888888888888)
  (0.11111111111111116 0. 0.6666666666666665)
  (0.11111111111111116 0. 0.4444444444444444)
  (0.11111111111111116 0. 0.22222222222222232)
  (0.11111111111111116 0. 0.)
  (0.11111111111111116 -0.16666666666666674 2.)
  (0.11111111111111116 -0.16666666666666674 1.)
  (0.11111111111111116 -0.33333333333333337 2.)
  (0.11111111111111116 -0.33333333333333337 1.)
  (0.11111111111111116 -0.5 2.)
  (0.11111111111111116 -0.5 1.7777777777777777)
  (0.11111111111111116 -0.5 1.5555555555555554)
  (0.11111111111111116 -0.5 1.333333333333333)
  (0.11111111111111116 -0.5 1.1111111111111112)
  (0.11111111111111116 -0.5 1.)
  (0. 1. 0.8888888888888888)
  (0. 1. 1.)
  (0. 0.8333333333333333 0.8888888888888888)
  (0. 0.8333333333333333 1.)
  (0. 1. 0.6666666666666665)
  (0. 0.8333333333333333 0.6666666666666665)
  (0. 1. 0.4444444444444444)
  (0. 0.8333333333333333 0.4444444444444444)
  (0. 1. 0.22222222222222232)
  (0. 0.8333333333333333 0.22222222222222232)
  (0. 1. 0.)
  (0. 0.8333333333333333 0.)
  (0. 0.6666666666666665 0.8888888888888888)
  (0. 0.6666666666666665 1.)
  (0. 0.6666666666666665 0.6666666666666665)
  (0. 0.6666666666666665 0.4444444444444444)
  (0. 0.6666666666666665 0.22222222222222232)
  (0. 0.6666666666666665 0.)
  (0. 0.5 0.8888888888888888)
  (0. 0.5 1.1111111111111112)
  (0. 0.5 0.6666666666666665)
  (0. 0.5 0.4444444444444444)
  (0. 0.5 0.22222222222222232)
  (0. 0.5 0.)
  (0. 0.5 2.)
  (0. 0.33333333333333326 2.)
  (0. 0.5 1.7777777777777777)
  (0. 0.33333333333333326 1.7777777777777777)
  (0. 0.5 1.5555555555555554)
  (0. 0.33333333333333326 1.5555555555555554)
  (0. 0.5 1.333333333333333)
  (0. 0.33333333333333326 1.333333333333333)
  (0. 0.33333333333333326 1.1111111111111112)
  (0. 0.33333333333333326 0.8888888888888888)
  (0. 0.33333333333333326 0.6666666666666665)
  (0. 0.33333333333333326 0.4444444444444444)
  (0. 0.33333333333333326 0.22222222222222232)
  (0. 0.33333333333333326 0.)
  (0. 0.16666666666666652 2.)
  (0. 0.16666666666666652 1.7777777777777777)
  (0. 0.16666666666666652 1.5555555555555554)
  (0. 0.16666666666666652 1.333333333333333)
  (0. 0.16666666666666652 1.1111111111111112)
  (0. 0.16666666666666652 0.8888888888888888)
  (0. 0.16666666666666652 0.6666666666666665)
  (0. 0.16666666666666652 0.4444444444444444)
  (0. 0.16666666666666652 0.22222222222222232)
  (0. 0.16666666666666652 0.)
  (0. 0. 2.)
  (0. 0. 1.7777777777777777)
  (0. 0. 1.5555555555555554)
  (0. 0. 1.333333333333333)
  (0. 0. 1.1111111111111112)
  (0. 0. 0.8888888888888888)
  (0. 0. 0.6666666666666665)
  (0. 0. 0.4444444444444444)
  (0. 0. 0.22222222222222232)
  (0. 0. 0.)
  (0. -0.16666666666666674 2.)
  (0. -0.16666666666666674 1.7777777777777777)
  (0. -0.16666666666666674 1.5555555555555554)
  (0. -0.16666666666666674 1.333333333333333)
  (0. -0.16666666666666674 1.1111111111111112)
  (0. -0.16666666666666674 1.)
  (0. -0.33333333333333337 2.)
  (0. -0.33333333333333337 1.7777777777777777)
  (0. -0.33333333333333337 1.5555555555555554)
  (0. -0.33333333333333337 1.333333333333333)
  (0. -0.33333333333333337 1.1111111111111112)
  (0. -0.33333333333333337 1.)
  (0. -0.5 2.)
  (0. -0.5 1.7777777777777777)
  (0. -0.5 1.5555555555555554)
  (0. -0.5 1.333333333333333)
  (0. -0.5 1.1111111111111112)
  (0. -0.5 1.)
  (1. 1. 0.8888888888888888)
  (0.8888888888888888 1. 0.8888888888888888)
  (1. 1. 1.)
  (0.8888888888888888 1. 1.)
  (1. 0.8333333333333333 0.8888888888888888)
  (1. 0.8333333333333333 1.)
  (0.8888888888888888 0.8333333333333333 1.)
  (1. 1. 0.6666666666666665)
  (0.8888888888888888 1. 0.6666666666666665)
  (1. 0.8333333333333333 0.6666666666666665)
  (1. 1. 0.4444444444444444)
  (0.8888888888888888 1. 0.4444444444444444)
  (1. 0.8333333333333333 0.4444444444444444)
  (1. 1. 0.22222222222222232)
  (0.8888888888888888 1. 0.22222222222222232)
  (1. 0.8333333333333333 0.22222222222222232)
  (1. 1. 0.)
  (0.8888888888888888 1. 0.)
  (1. 0.8333333333333333 0.)
  (0.8888888888888888 0.8333333333333333 0.)
  (1. 0.6666666666666665 0.8888888888888888)
  (1. 0.6666666666666665 1.)
  (0.8888888888888888 0.6666666666666665 1.)
  (1. 0.6666666666666665 0.6666666666666665)
  (1. 0.6666666666666665 0.4444444444444444)
  (1. 0.6666666666666665 0.22222222222222232)
  (1. 0.6666666666666665 0.)
  (0.8888888888888888 0.6666666666666665 0.)
  (1. 0.5 0.8888888888888888)
  (1. 0.5 1.1111111111111112)
  (0.8888888888888888 0.5 1.1111111111111112)
  (1. 0.5 0.6666666666666665)
  (1. 0.5 0.4444444444444444)
  (1. 0.5 0.22222222222222232)
  (1. 0.5 0.)
  (0.8888888888888888 0.5 0.)
  (1. 0.5 2.)
  (0.8888888888888888 0.5 2.)
  (1. 0.33333333333333326 2.)
  (0.8888888888888888 0.33333333333333326 2.)
  (1. 0.33333333333333326 1.7777777777777777)
  (1. 0.5 1.7777777777777777)
  (0.8888888888888888 0.5 1.7777777777777777)
  (1. 0.33333333333333326 1.5555555555555554)
  (1. 0.5 1.5555555555555554)
  (0.8888888888888888 0.5 1.5555555555555554)
  (1. 0.33333333333333326 1.333333333333333)
  (1. 0.5 1.333333333333333)
  (0.8888888888888888 0.5 1.333333333333333)
  (1. 0.33333333333333326 1.1111111111111112)
  (1. 0.33333333333333326 0.8888888888888888)
  (1. 0.33333333333333326 0.6666666666666665)
  (1. 0.33333333333333326 0.4444444444444444)
  (1. 0.33333333333333326 0.22222222222222232)
  (1. 0.33333333333333326 0.)
  (0.8888888888888888 0.33333333333333326 0.)
  (1. 0.16666666666666652 2.)
  (0.8888888888888888 0.16666666666666652 2.)
  (1. 0.16666666666666652 1.7777777777777777)
  (1. 0.16666666666666652 1.5555555555555554)
  (1. 0.16666666666666652 1.333333333333333)
  (1. 0.16666666666666652 1.1111111111111112)
  (1. 0.16666666666666652 0.8888888888888888)
  (1. 0.16666666666666652 0.6666666666666665)
  (1. 0.16666666666666652 0.4444444444444444)
  (1. 0.16666666666666652 0.22222222222222232)
  (1. 0.16666666666666652 0.)
  (0.8888888888888888 0.16666666666666652 0.)
  (1. 0. 2.)
  (0.8888888888888888 0. 2.)
  (1. 0. 1.7777777777777777)
  (1. 0. 1.5555555555555554)
  (1. 0. 1.333333333333333)
  (1. 0. 1.1111111111111112)
  (1. 0. 0.8888888888888888)
  (0.8888888888888888 0. 0.8888888888888888)
  (1. 0. 0.6666666666666665)
  (0.8888888888888888 0. 0.6666666666666665)
  (1. 0. 0.4444444444444444)
  (0.8888888888888888 0. 0.4444444444444444)
  (1. 0. 0.22222222222222232)
  (0.8888888888888888 0. 0.22222222222222232)
  (1. 0. 0.)
  (0.8888888888888888 0. 0.)
  (1. -0.16666666666666674 2.)
  (0.8888888888888888 -0.16666666666666674 2.)
  (1. -0.16666666666666674 1.7777777777777777)
  (1. -0.16666666666666674 1.5555555555555554)
  (1. -0.16666666666666674 1.333333333333333)
  (1. -0.16666666666666674 1.1111111111111112)
  (1. -0.16666666666666674 1.)
  (0.8888888888888888 -0.16666666666666674 1.)
  (1. -0.33333333333333337 2.)
  (0.8888888888888888 -0.33333333333333337 2.)
  (1. -0.33333333333333337 1.7777777777777777)
  (1. -0.33333333333333337 1.5555555555555554)
  (1. -0.33333333333333337 1.333333333333333)
  (1. -0.33333333333333337 1.1111111111111112)
  (1. -0.33333333333333337 1.)
  (0.8888888888888888 -0.33333333333333337 1.)
  (1. -0.5 2.)
  (0.8888888888888888 -0.5 2.)
  (1. -0.5 1.7777777777777777)
  (0.8888888888888888 -0.5 1.7777777777777777)
  (1. -0.5 1.5555555555555554)
  (0.8888888888888888 -0.5 1.5555555555555554)
  (1. -0.5 1.333333333333333)
  (0.8888888888888888 -0.5 1.333333333333333)
  (1. -0.5 1.1111111111111112)
  (0.8888888888888888 -0.5 1.1111111111111112)
  (1. -0.5 1.)
  (0.8888888888888888 -0.5 1.)
  (0.7777777777777777 1. 0.8888888888888888)
  (0.7777777777777777 1. 1.)
  (0.7777777777777777 0.8333333333333333 1.)
  (0.7777777777777777 1. 0.6666666666666665)
  (0.7777777777777777 1. 0.4444444444444444)
  (0.7777777777777777 1. 0.22222222222222232)
  (0.7777777777777777 1. 0.)
  (0.7777777777777777 0.8333333333333333 0.)
  (0.7777777777777777 0.6666666666666665 1.)
  (0.7777777777777777 0.6666666666666665 0.)
  (0.7777777777777777 0.5 1.1111111111111112)
  (0.7777777777777777 0.5 0.)
  (0.7777777777777777 0.5 2.)
  (0.7777777777777777 0.33333333333333326 2.)
  (0.7777777777777777 0.5 1.7777777777777777)
  (0.7777777777777777 0.5 1.5555555555555554)
  (0.7777777777777777 0.5 1.333333333333333)
  (0.7777777777777777 0.33333333333333326 0.)
  (0.7777777777777777 0.16666666666666652 2.)
  (0.7777777777777777 0.16666666666666652 0.)
  (0.7777777777777777 0. 2.)
  (0.7777777777777777 0. 0.8888888888888888)
  (0.7777777777777777 0. 0.6666666666666665)
  (0.7777777777777777 0. 0.4444444444444444)
  (0.7777777777777777 0. 0.22222222222222232)
  (0.7777777777777777 0. 0.)
  (0.7777777777777777 -0.16666666666666674 2.)
  (0.7777777777777777 -0.16666666666666674 1.)
  (0.7777777777777777 -0.33333333333333337 2.)
  (0.7777777777777777 -0.33333333333333337 1.)
  (0.7777777777777777 -0.5 2.)
  (0.7777777777777777 -0.5 1.7777777777777777)
  (0.7777777777777777 -0.5 1.5555555555555554)
  (0.7777777777777777 -0.5 1.333333333333333)
  (0.7777777777777777 -0.5 1.1111111111111112)
  (0.7777777777777777 -0.5 1.)
  (0.6666666666666665 1. 0.8888888888888888)
  (0.6666666666666665 1. 1.)
  (0.6666666666666665 0.8333333333333333 1.)
  (0.6666666666666665 1. 0.6666666666666665)
  (0.6666666666666665 1. 0.4444444444444444)
  (0.6666666666666665 1. 0.22222222222222232)
  (0.6666666666666665 1. 0.)
  (0.6666666666666665 0.8333333333333333 0.)
  (0.6666666666666665 0.6666666666666665 1.)
  (0.6666666666666665 0.6666666666666665 0.)
  (0.6666666666666665 0.5 1.1111111111111112)
  (0.6666666666666665 0.5 0.)
  (0.6666666666666665 0.5 2.)
  (0.6666666666666665 0.33333333333333326 2.)
  (0.6666666666666665 0.5 1.7777777777777777)
  (0.6666666666666665 0.5 1.5555555555555554)
  (0.6666666666666665 0.5 1.333333333333333)
  (0.6666666666666665 0.33333333333333326 0.)
  (0.6666666666666665 0.16666666666666652 2.)
  (0.6666666666666665 0.16666666666666652 0.)
  (0.6666666666666665 0. 2.)
  (0.6666666666666665 0. 0.8888888888888888)
  (0.6666666666666665 0. 0.6666666666666665)
  (0.6666666666666665 0. 0.4444444444444444)
  (0.6666666666666665 0. 0.22222222222222232)
  (0.6666666666666665 0. 0.)
  (0.6666666666666665 -0.16666666666666674 2.)
  (0.6666666666666665 -0.16666666666666674 1.)
  (0.6666666666666665 -0.33333333333333337 2.)
  (0.6666666666666665 -0.33333333333333337 1.)
  (0.6666666666666665 -0.5 2.)
  (0.6666666666666665 -0.5 1.7777777777777777)
  (0.6666666666666665 -0.5 1.5555555555555554)
  (0.6666666666666665 -0.5 1.333333333333333)
  (0.6666666666666665 -0.5 1.1111111111111112)
  (0.6666666666666665 -0.5 1.)
  (0.5555555555555556 1. 0.8888888888888888)
  (0.5555555555555556 1. 1.)
  (0.5555555555555556 0.8333333333333333 1.)
  (0.5555555555555556 1. 0.6666666666666665)
  (0.5555555555555556 1. 0.4444444444444444)
  (0.5555555555555556 1. 0.22222222222222232)
  (0.5555555555555556 1. 0.)
  (0.5555555555555556 0.8333333333333333 0.)
  (0.5555555555555556 0.6666666666666665 1.)
  (0.5555555555555556 0.6666666666666665 0.)
  (0.5555555555555556 0.5 1.1111111111111112)
  (0.5555555555555556 0.5 0.)
  (0.5555555555555556 0.5 2.)
  (0.5555555555555556 0.33333333333333326 2.)
  (0.5555555555555556 0.5 1.7777777777777777)
  (0.5555555555555556 0.5 1.5555555555555554)
  (0.5555555555555556 0.5 1.333333333333333)
  (0.5555555555555556 0.33333333333333326 0.)
  (0.5555555555555556 0.16666666666666652 2.)
  (0.5555555555555556 0.16666666666666652 0.)
  (0.5555555555555556 0. 2.)
  (0.5555555555555556 0. 0.8888888888888888)
  (0.5555555555555556 0. 0.6666666666666665)
  (0.5555555555555556 0. 0.4444444444444444)
  (0.5555555555555556 0. 0.22222222222222232)
  (0.5555555555555556 0. 0.)
  (0.5555555555555556 -0.16666666666666674 2.)
  (0.5555555555555556 -0.16666666666666674 1.)
  (0.5555555555555556 -0.33333333333333337 2.)
  (0.5555555555555556 -0.33333333333333337 1.)
  (0.5555555555555556 -0.5 2.)
  (0.5555555555555556 -0.5 1.7777777777777777)
  (0.5555555555555556 -0.5 1.5555555555555554)
  (0.5555555555555556 -0.5 1.333333333333333)
  (0.5555555555555556 -0.5 1.1111111111111112)
  (0.5555555555555556 -0.5 1.)
  (0.6111111111111109 0.11111111111111094 1.2777777777777777)
  (0.6111111111111112 0.38888888888888906 0.7222222222222219)
  (0.6111111111111112 -0.11111111111111116 1.6055555555555552)
  (0.6111111111111114 0.6111111111111114 0.3944444444444446)
  (0.4834307992202731 -0.18114035087719316 1.3188596491228068)
  (0.3148148148148151 0.03412037037037163 1.6666666666666665)
  (0.4834307992202722 0.6811403508771927 0.6811403508771927)
  (0.3148148148148149 0.46587962962963014 0.3333333333333335)
  (0.2777777777777779 -0.22222222222222232 1.5518747010030896)
  (0.38888888888888884 0.7290915345108042 0.2700812428021746)
);


blocks
(
 hex (1 3 5 5 0 0 0 0) (1 1 1) simpleGrading (1 1 1)
 hex (48 51 50 50 38 38 38 38) (1 1 1) simpleGrading (1 1 1)
 hex (189 179 178 178 94 94 94 94) (1 1 1) simpleGrading (1 1 1)
 hex (441 271 270 270 248 248 248 248) (1 1 1) simpleGrading (1 1 1)
 hex (68 69 444 444 58 58 58 58) (1 1 1) simpleGrading (1 1 1)
 hex (345 381 382 382 344 344 344 344) (1 1 1) simpleGrading (1 1 1)
 hex (180 125 89 89 83 83 83 83) (1 1 1) simpleGrading (1 1 1)
 hex (257 259 262 262 256 256 256 256) (1 1 1) simpleGrading (1 1 1)
 hex (262 346 347 347 260 260 260 260) (1 1 1) simpleGrading (1 1 1)
 hex (98 100 448 448 53 53 53 53) (1 1 1) simpleGrading (1 1 1)
 hex (340 251 441 441 243 243 243 243) (1 1 1) simpleGrading (1 1 1)
 hex (422 424 442 442 386 386 386 386) (1 1 1) simpleGrading (1 1 1)
 hex (181 167 166 166 119 119 119 119) (1 1 1) simpleGrading (1 1 1)
 hex (356 393 392 392 351 351 351 351) (1 1 1) simpleGrading (1 1 1)
 hex (442 424 430 430 40 40 40 40) (1 1 1) simpleGrading (1 1 1)
 hex (332 224 335 335 221 221 221 221) (1 1 1) simpleGrading (1 1 1)
 hex (262 347 265 265 260 260 260 260) (1 1 1) simpleGrading (1 1 1)
 hex (342 281 353 353 269 269 269 269) (1 1 1) simpleGrading (1 1 1)
 hex (402 366 365 365 361 361 361 361) (1 1 1) simpleGrading (1 1 1)
 hex (409 443 449 449 373 373 373 373) (1 1 1) simpleGrading (1 1 1)
 hex (75 80 446 446 74 74 74 74) (1 1 1) simpleGrading (1 1 1)
 hex (224 225 226 226 220 220 220 220) (1 1 1) simpleGrading (1 1 1)
 hex (179 447 178 178 94 94 94 94) (1 1 1) simpleGrading (1 1 1)
 hex (149 108 111 111 72 72 72 72) (1 1 1) simpleGrading (1 1 1)
 hex (266 268 348 348 263 263 263 263) (1 1 1) simpleGrading (1 1 1)
 hex (112 151 153 153 76 76 76 76) (1 1 1) simpleGrading (1 1 1)
 hex (368 370 369 369 332 332 332 332) (1 1 1) simpleGrading (1 1 1)
 hex (425 440 431 431 389 389 389 389) (1 1 1) simpleGrading (1 1 1)
 hex (115 113 114 114 77 77 77 77) (1 1 1) simpleGrading (1 1 1)
 hex (339 375 443 443 337 337 337 337) (1 1 1) simpleGrading (1 1 1)
 hex (129 186 196 196 93 93 93 93) (1 1 1) simpleGrading (1 1 1)
 hex (409 449 443 443 408 408 408 408) (1 1 1) simpleGrading (1 1 1)
 hex (250 266 269 269 249 249 249 249) (1 1 1) simpleGrading (1 1 1)
 hex (72 73 74 74 1 1 1 1) (1 1 1) simpleGrading (1 1 1)
 hex (153 112 113 113 76 76 76 76) (1 1 1) simpleGrading (1 1 1)
 hex (440 33 32 32 30 30 30 30) (1 1 1) simpleGrading (1 1 1)
 hex (67 69 106 106 59 59 59 59) (1 1 1) simpleGrading (1 1 1)
 hex (387 428 423 423 385 385 385 385) (1 1 1) simpleGrading (1 1 1)
 hex (186 196 440 440 185 185 185 185) (1 1 1) simpleGrading (1 1 1)
 hex (261 265 264 264 260 260 260 260) (1 1 1) simpleGrading (1 1 1)
 hex (260 262 346 346 259 259 259 259) (1 1 1) simpleGrading (1 1 1)
 hex (443 392 391 391 272 272 272 272) (1 1 1) simpleGrading (1 1 1)
 hex (266 342 348 348 250 250 250 250) (1 1 1) simpleGrading (1 1 1)
 hex (292 293 440 440 280 280 280 280) (1 1 1) simpleGrading (1 1 1)
 hex (139 209 215 215 136 136 136 136) (1 1 1) simpleGrading (1 1 1)
 hex (226 224 221 221 220 220 220 220) (1 1 1) simpleGrading (1 1 1)
 hex (266 348 268 268 250 250 250 250) (1 1 1) simpleGrading (1 1 1)
 hex (259 262 346 346 257 257 257 257) (1 1 1) simpleGrading (1 1 1)
 hex (114 155 115 115 113 113 113 113) (1 1 1) simpleGrading (1 1 1)
 hex (46 427 441 441 44 44 44 44) (1 1 1) simpleGrading (1 1 1)
 hex (200 189 199 199 131 131 131 131) (1 1 1) simpleGrading (1 1 1)
 hex (423 428 38 38 34 34 34 34) (1 1 1) simpleGrading (1 1 1)
 hex (265 347 348 348 263 263 263 263) (1 1 1) simpleGrading (1 1 1)
 hex (260 346 345 345 259 259 259 259) (1 1 1) simpleGrading (1 1 1)
 hex (397 444 401 401 361 361 361 361) (1 1 1) simpleGrading (1 1 1)
 hex (263 264 265 265 260 260 260 260) (1 1 1) simpleGrading (1 1 1)
 hex (57 63 448 448 56 56 56 56) (1 1 1) simpleGrading (1 1 1)
 hex (441 378 376 376 340 340 340 340) (1 1 1) simpleGrading (1 1 1)
 hex (263 265 347 347 260 260 260 260) (1 1 1) simpleGrading (1 1 1)
 hex (356 287 301 301 285 285 285 285) (1 1 1) simpleGrading (1 1 1)
 hex (151 112 76 76 75 75 75 75) (1 1 1) simpleGrading (1 1 1)
 hex (151 159 449 449 76 76 76 76) (1 1 1) simpleGrading (1 1 1)
 hex (67 448 105 105 65 65 65 65) (1 1 1) simpleGrading (1 1 1)
 hex (85 445 86 86 27 27 27 27) (1 1 1) simpleGrading (1 1 1)
 hex (298 301 300 300 284 284 284 284) (1 1 1) simpleGrading (1 1 1)
 hex (250 268 266 266 249 249 249 249) (1 1 1) simpleGrading (1 1 1)
 hex (260 261 262 262 256 256 256 256) (1 1 1) simpleGrading (1 1 1)
 hex (259 260 262 262 256 256 256 256) (1 1 1) simpleGrading (1 1 1)
 hex (353 441 389 389 342 342 342 342) (1 1 1) simpleGrading (1 1 1)
 hex (366 403 402 402 361 361 361 361) (1 1 1) simpleGrading (1 1 1)
 hex (190 180 447 447 89 89 89 89) (1 1 1) simpleGrading (1 1 1)
 hex (421 428 423 423 34 34 34 34) (1 1 1) simpleGrading (1 1 1)
 hex (431 444 433 433 395 395 395 395) (1 1 1) simpleGrading (1 1 1)
 hex (258 260 259 259 256 256 256 256) (1 1 1) simpleGrading (1 1 1)
 hex (76 75 446 446 7 7 7 7) (1 1 1) simpleGrading (1 1 1)
 hex (259 346 345 345 257 257 257 257) (1 1 1) simpleGrading (1 1 1)
 hex (364 442 400 400 363 363 363 363) (1 1 1) simpleGrading (1 1 1)
 hex (441 342 340 340 248 248 248 248) (1 1 1) simpleGrading (1 1 1)
 hex (163 162 176 176 118 118 118 118) (1 1 1) simpleGrading (1 1 1)
 hex (1 446 7 7 0 0 0 0) (1 1 1) simpleGrading (1 1 1)
 hex (232 336 337 337 231 231 231 231) (1 1 1) simpleGrading (1 1 1)
 hex (441 284 283 283 271 271 271 271) (1 1 1) simpleGrading (1 1 1)
 hex (364 325 315 315 314 314 314 314) (1 1 1) simpleGrading (1 1 1)
 hex (444 445 448 448 442 442 442 442) (1 1 1) simpleGrading (1 1 1)
 hex (265 348 268 268 263 263 263 263) (1 1 1) simpleGrading (1 1 1)
 hex (80 164 162 162 17 17 17 17) (1 1 1) simpleGrading (1 1 1)
 hex (441 427 426 426 390 390 390 390) (1 1 1) simpleGrading (1 1 1)
 hex (203 445 204 204 193 193 193 193) (1 1 1) simpleGrading (1 1 1)
 hex (335 229 228 228 221 221 221 221) (1 1 1) simpleGrading (1 1 1)
 hex (204 448 445 445 203 203 203 203) (1 1 1) simpleGrading (1 1 1)
 hex (266 268 267 267 249 249 249 249) (1 1 1) simpleGrading (1 1 1)
 hex (261 262 265 265 260 260 260 260) (1 1 1) simpleGrading (1 1 1)
 hex (158 446 159 159 75 75 75 75) (1 1 1) simpleGrading (1 1 1)
 hex (124 175 174 174 123 123 123 123) (1 1 1) simpleGrading (1 1 1)
 hex (416 417 418 418 380 380 380 380) (1 1 1) simpleGrading (1 1 1)
 hex (370 371 446 446 368 368 368 368) (1 1 1) simpleGrading (1 1 1)
 hex (397 433 444 444 395 395 395 395) (1 1 1) simpleGrading (1 1 1)
 hex (419 440 420 420 383 383 383 383) (1 1 1) simpleGrading (1 1 1)
 hex (274 286 287 287 273 273 273 273) (1 1 1) simpleGrading (1 1 1)
 hex (418 382 381 381 380 380 380 380) (1 1 1) simpleGrading (1 1 1)
 hex (381 418 417 417 380 380 380 380) (1 1 1) simpleGrading (1 1 1)
 hex (331 319 329 329 317 317 317 317) (1 1 1) simpleGrading (1 1 1)
 hex (436 442 64 64 62 62 62 62) (1 1 1) simpleGrading (1 1 1)
 hex (203 448 445 445 98 98 98 98) (1 1 1) simpleGrading (1 1 1)
 hex (148 149 151 151 111 111 111 111) (1 1 1) simpleGrading (1 1 1)
 hex (66 444 448 448 64 64 64 64) (1 1 1) simpleGrading (1 1 1)
 hex (100 103 448 448 57 57 57 57) (1 1 1) simpleGrading (1 1 1)
 hex (343 443 253 253 245 245 245 245) (1 1 1) simpleGrading (1 1 1)
 hex (443 392 428 428 391 391 391 391) (1 1 1) simpleGrading (1 1 1)
 hex (31 87 445 445 29 29 29 29) (1 1 1) simpleGrading (1 1 1)
 hex (266 267 268 268 263 263 263 263) (1 1 1) simpleGrading (1 1 1)
 hex (52 445 53 53 40 40 40 40) (1 1 1) simpleGrading (1 1 1)
 hex (130 188 198 198 129 129 129 129) (1 1 1) simpleGrading (1 1 1)
 hex (387 392 428 428 385 385 385 385) (1 1 1) simpleGrading (1 1 1)
 hex (296 299 298 298 283 283 283 283) (1 1 1) simpleGrading (1 1 1)
 hex (264 265 268 268 263 263 263 263) (1 1 1) simpleGrading (1 1 1)
 hex (264 268 267 267 263 263 263 263) (1 1 1) simpleGrading (1 1 1)
 hex (29 86 445 445 27 27 27 27) (1 1 1) simpleGrading (1 1 1)
 hex (374 411 410 410 373 373 373 373) (1 1 1) simpleGrading (1 1 1)
 hex (94 188 130 130 93 93 93 93) (1 1 1) simpleGrading (1 1 1)
 hex (31 445 440 440 30 30 30 30) (1 1 1) simpleGrading (1 1 1)
 hex (375 443 377 377 339 339 339 339) (1 1 1) simpleGrading (1 1 1)
 hex (444 448 445 445 195 195 195 195) (1 1 1) simpleGrading (1 1 1)
 hex (133 97 96 96 91 91 91 91) (1 1 1) simpleGrading (1 1 1)
 hex (423 429 428 428 387 387 387 387) (1 1 1) simpleGrading (1 1 1)
 hex (351 356 357 357 287 287 287 287) (1 1 1) simpleGrading (1 1 1)
 hex (266 269 342 342 250 250 250 250) (1 1 1) simpleGrading (1 1 1)
 hex (117 160 166 166 81 81 81 81) (1 1 1) simpleGrading (1 1 1)
 hex (380 382 381 381 344 344 344 344) (1 1 1) simpleGrading (1 1 1)
 hex (345 382 346 346 344 344 344 344) (1 1 1) simpleGrading (1 1 1)
 hex (346 344 345 345 257 257 257 257) (1 1 1) simpleGrading (1 1 1)
 hex (188 177 187 187 93 93 93 93) (1 1 1) simpleGrading (1 1 1)
 hex (282 294 295 295 281 281 281 281) (1 1 1) simpleGrading (1 1 1)
 hex (353 282 295 295 281 281 281 281) (1 1 1) simpleGrading (1 1 1)
 hex (89 447 35 35 23 23 23 23) (1 1 1) simpleGrading (1 1 1)
 hex (335 334 332 332 224 224 224 224) (1 1 1) simpleGrading (1 1 1)
 hex (43 440 55 55 42 42 42 42) (1 1 1) simpleGrading (1 1 1)
 hex (444 195 205 205 99 99 99 99) (1 1 1) simpleGrading (1 1 1)
 hex (383 442 440 440 279 279 279 279) (1 1 1) simpleGrading (1 1 1)
 hex (125 181 180 180 119 119 119 119) (1 1 1) simpleGrading (1 1 1)
 hex (222 226 225 225 220 220 220 220) (1 1 1) simpleGrading (1 1 1)
 hex (412 441 446 446 376 376 376 376) (1 1 1) simpleGrading (1 1 1)
 hex (243 244 443 443 229 229 229 229) (1 1 1) simpleGrading (1 1 1)
 hex (189 447 179 179 95 95 95 95) (1 1 1) simpleGrading (1 1 1)
 hex (441 283 282 282 270 270 270 270) (1 1 1) simpleGrading (1 1 1)
 hex (178 441 447 447 164 164 164 164) (1 1 1) simpleGrading (1 1 1)
 hex (159 446 449 449 76 76 76 76) (1 1 1) simpleGrading (1 1 1)
 hex (440 186 196 196 55 55 55 55) (1 1 1) simpleGrading (1 1 1)
 hex (175 118 124 124 82 82 82 82) (1 1 1) simpleGrading (1 1 1)
 hex (221 229 228 228 220 220 220 220) (1 1 1) simpleGrading (1 1 1)
 hex (333 334 223 223 221 221 221 221) (1 1 1) simpleGrading (1 1 1)
 hex (388 442 424 424 386 386 386 386) (1 1 1) simpleGrading (1 1 1)
 hex (101 105 444 444 99 99 99 99) (1 1 1) simpleGrading (1 1 1)
 hex (418 442 419 419 382 382 382 382) (1 1 1) simpleGrading (1 1 1)
 hex (209 210 448 448 139 139 139 139) (1 1 1) simpleGrading (1 1 1)
 hex (96 133 132 132 91 91 91 91) (1 1 1) simpleGrading (1 1 1)
 hex (441 46 47 47 44 44 44 44) (1 1 1) simpleGrading (1 1 1)
 hex (62 448 63 63 56 56 56 56) (1 1 1) simpleGrading (1 1 1)
 hex (199 189 188 188 130 130 130 130) (1 1 1) simpleGrading (1 1 1)
 hex (64 442 448 448 62 62 62 62) (1 1 1) simpleGrading (1 1 1)
 hex (14 449 411 411 10 10 10 10) (1 1 1) simpleGrading (1 1 1)
 hex (129 130 188 188 93 93 93 93) (1 1 1) simpleGrading (1 1 1)
 hex (298 299 301 301 284 284 284 284) (1 1 1) simpleGrading (1 1 1)